*Summary of files opened during simulation

Unit  File
Num.  Variable Name
*DSSAT Cropping System Model Ver. 4.5.1.023 -Stub         DEC 29, 2014; 21:43:55

 Unit  Filename
   21  FILEIO
   14  BATCH 
  101  ERRORO
  102  WARNING.OUT
