*WARNING DETAIL FILE

******************************************************************************
*DSSAT Cropping System Model Ver. 4.5.1.023 -Stub         DEC 29, 2014; 21:43:55

*RUN   0


 CSM     YEAR DOY =    0   0
 Could not locate error file:                                     ../MODEL.ERR 
 Unknown ERROR. Error number:    26                                            
 File: /Users/pitch   Line:     1 Error key: CSM                               
 Simulations terminated.                                                       
